Circuit: * C:\Users\Nathann\ClawdDrive\Documents\EPFL\MTBA4\Electronique\TP_SIM\Draft1.asc

Direct Newton iteration for .op point succeeded.

Date: Fri Jun 02 13:34:28 2023
Total elapsed time: 0.081 seconds.

tnom = 27
temp = 27
method = trap
totiter = 13
traniter = 0
tranpoints = 0
accept = 0
rejected = 0
matrix size = 17
fillins = 4
solver = Normal
Matrix Compiler1:      67 opcodes
Matrix Compiler2: 1.35 KB object code size
